Circuit: * C:\Users\clark\Music\CAPTEUR GAZZZ\Capteur_Gaz\amplificateur_capteurGaz.asc

WARNING: Node N004 is floating.

Direct Newton iteration for .op point succeeded.

Date: Fri Dec 06 16:41:11 2024
Total elapsed time: 0.142 seconds.

tnom = 27
temp = 27
method = modified trap
totiter = 19548
traniter = 19526
tranpoints = 8718
accept = 5709
rejected = 3009
matrix size = 17
fillins = 12
solver = Normal
Matrix Compiler1: 1.13 KB object code size  0.2/0.2/[0.1]
Matrix Compiler2: off  [0.1]/0.1/0.1

